
**** 05/27/21 15:30:04 ******* PSpice 17.4.0 (Nov 2018) ******* ID# 0 ********

 ** Profile: "SCHEMATIC1-TransientAnalysis"  [ C:\Users\a0232073\Downloads\LMH6618\lmh6619-pspicefiles\schematic1\transientanalysis.s


 ****     CIRCUIT DESCRIPTION


******************************************************************************




** Creating circuit file "TransientAnalysis.cir" 
** WARNING: THIS AUTOMATICALLY GENERATED FILE MAY BE OVERWRITTEN BY SUBSEQUENT SIMULATIONS

*Libraries: 
* Profile Libraries :
* Local Libraries :
.LIB "../../../LMH6619.lib" 
* From [PSPICE NETLIST] section of C:\SPB_Data\cdssetup\OrCAD_PSpiceTIPSpice_Install\17.4.0\PSpice.ini file:
.lib "nom_pspti.lib" 
.lib "nom.lib" 

*Analysis directives: 
.TRAN  0 1000ns  0 0.1ns 
.OPTIONS ADVCONV
.OPTIONS FILEMODELSEARCH
.PROBE64 V(alias(*)) I(alias(*)) W(alias(*)) D(alias(*)) NOISE(alias(*)) 
.INC "..\SCHEMATIC1.net" 



**** INCLUDING SCHEMATIC1.net ****
* source LMH6619
R_R1         N01485 VOUT  2000 TC=0,0 
V_V2         VREF 0 0Vdc
V_V4         VIN VREF  AC 1
+SIN 0 1 5e6 0 0 0
R_R4         VOUT VREF  1000 TC=0,0 
R_R2         VREF N01485  2000 TC=0,0 
V_V1         VCC 0 5Vdc
V_V3         VEE 0 -5Vdc
X_U1         VIN N01485 VCC VEE VOUT LMH6618

**** RESUMING TransientAnalysis.cir ****
.END

**** 05/27/21 15:30:04 ******* PSpice 17.4.0 (Nov 2018) ******* ID# 0 ********

 ** Profile: "SCHEMATIC1-TransientAnalysis"  [ C:\Users\a0232073\Downloads\LMH6618\lmh6619-pspicefiles\schematic1\transientanalysis.s


 ****     Diode MODEL PARAMETERS


******************************************************************************




               X_U1.DD         X_U1.DVN        X_U1.DIN        
          IS   10.000000E-15   10.000000E-15   10.000000E-15 
          KF                    2.500000E-15    8.000000E-15 


**** 05/27/21 15:30:04 ******* PSpice 17.4.0 (Nov 2018) ******* ID# 0 ********

 ** Profile: "SCHEMATIC1-TransientAnalysis"  [ C:\Users\a0232073\Downloads\LMH6618\lmh6619-pspicefiles\schematic1\transientanalysis.s


 ****     BJT MODEL PARAMETERS


******************************************************************************




               X_U1.QN         X_U1.QP         X_U1.QLN        X_U1.QLP        
               NPN             PNP             NPN             PNP             
       LEVEL    1               1               1               1            
          IS  100.000000E-18  100.000000E-18  100.000000E-18  100.000000E-18 
          BF  100             100             100             100            
          NF    1               1               1               1            
          BR    1               1               1               1            
          NR    1               1               1               1            
         ISS    0               0               0               0            
          RE    0               0               0               0            
          RC    0               0               0               0            
         CJE    0               0               0               0            
         VJE     .75             .75             .75             .75         
         CJC    0               0               0               0            
         VJC     .75             .75             .75             .75         
         MJC     .33             .33             .33             .33         
        XCJC    1               1               1               1            
         CJS    0               0               0               0            
         VJS     .75             .75             .75             .75         
          KF    0               0               0               0            
          AF    1               1               1               1            
          CN    2.42            2.2             2.42            2.2          
           D     .87             .52             .87             .52         


**** 05/27/21 15:30:04 ******* PSpice 17.4.0 (Nov 2018) ******* ID# 0 ********

 ** Profile: "SCHEMATIC1-TransientAnalysis"  [ C:\Users\a0232073\Downloads\LMH6618\lmh6619-pspicefiles\schematic1\transientanalysis.s


 ****     MOSFET MODEL PARAMETERS


******************************************************************************




               X_U1.MDP        X_U1.PLT        X_U1.NLT        X_U1.NSW        
               PMOS            PMOS            NMOS            NMOS            
       LEVEL    1               1               1               1            
           L  100.000000E-06  100.000000E-06  100.000000E-06  100.000000E-06 
           W  100.000000E-06  100.000000E-06  100.000000E-06  100.000000E-06 
         VTO    -.7             -.7              .7             0            
          KP  200.000000E-06  200.000000E-06  200.000000E-06  200.000000E-06 
       GAMMA    0               0               0               0            
         PHI     .6              .6              .6              .6          
      LAMBDA    0               0               0               0            
          IS   10.000000E-15   10.000000E-15   10.000000E-15    1.000000E-18 
          JS    0               0               0               0            
          PB     .8              .8              .8              .8          
        PBSW     .8              .8              .8              .8          
          CJ    0               0               0               0            
        CJSW    0               0               0               0            
        CGSO    0               0               0               0            
        CGDO    0               0               0               0            
        CGBO    0               0               0               0            
         TOX    0               0               0               0            
          XJ    0               0               0               0            
       UCRIT   10.000000E+03   10.000000E+03   10.000000E+03   10.000000E+03 
      DIOMOD    1               1               1               1            
         VFB    0               0               0               0            
        LETA    0               0               0               0            
        WETA    0               0               0               0            
          U0    0               0               0               0            
        TEMP    0               0               0               0            
         VDD    5               5               5               5            
       XPART    0               0               0               0            


ERROR(ORPSIM-16583): Detected an imported model containing transistors or diodes. For such models, PSpice for TI supports a minimum of one and maximum of three traces. Reduce the number of traces and simulate again.


ABORTING SIMULATION
**** 05/27/21 15:30:04 ******* PSpice 17.4.0 (Nov 2018) ******* ID# 0 ********

 ** Profile: "SCHEMATIC1-TransientAnalysis"  [ C:\Users\a0232073\Downloads\LMH6618\lmh6619-pspicefiles\schematic1\transientanalysis.s


 ****     JOB STATISTICS SUMMARY


******************************************************************************



Node counts:
  Top level (NUNODS)                =           7
  External (NCNODS)                 =          83
  Total (NUMNOD)                    =          83

Total device count (NUMEL)          =         164
  Capacitors (C)                    =          10
  Diodes (D)                        =          17
  VCVS (E)                          =          21
  VCCS (G)                          =          14
  Current Sources (I)               =           6
  Inductors (L)                     =           1
  MosFETs (M)                       =           8
  BJTs (Q)                          =           7
  Resistors (R)                     =          65
  Voltage Sources (V)               =          14

Number of subcircuits (X)           =           1

Matrix statistics:
  Matrix size (NSTOP)               =         119
  Initial no. elements (NTTAR)      =         437
  No. elements w/ fillin (NTTBR)    =         437
  No. fillins (IFILL)               =           0
  No. overflows (NTTOV)             =           0
  No. LU operations (IOPS)          =           0
  Percent sparsity (PERSPA)         =      96.914

Analysis statistics:
  No. total time points (NUMTTP)    =           0
  No. rejected time points (NUMRTP) =           0
  No. iterations (NUMNIT)           =           0

Load Threads                        =           1

Runtime statistics:                       Seconds      Iterations
  Matrix load                       =        0.00
  Matrix solution                   =        0.00               1
  Readin                            =        1.33
  General setup                     =        0.00
  CMI setup                     =        0.00
  Setup                             =        0.00
  DC sweep                          =        0.00               0
  Bias point                        =        0.00               0
  AC and noise                      =        0.00               0
  Total transient analysis          =        0.00
  Output                            =        0.00
  Overhead                          =         .20
  License check-out time            =       58.41
  Total job time (using Solver 1)   =        1.33
